
No compatibility mode selected!


Circuit: * /home/bhawarth/esim-workspace/smart_lock/smart_lock.cir

Reducing trtol to 1 for xspice 'A' devices
Doing analysis at TEMP = 27.000000 and TNOM = 27.000000

Warning: v3: no DC value, transient time 0 value used
Warning: v2: no DC value, transient time 0 value used
Warning: v1: no DC value, transient time 0 value used
=============fsm_lock : New Iteration===========
Instance : 0

Inside foo before eval.....
clk=0
reset=0
din=0
pattern_detect=0

Inside foo after eval.....
clk=0
reset=0
din=0
pattern_detect=0
=============fsm_lock : New Iteration===========
Instance : 0

Inside foo before eval.....
clk=0
reset=0
din=0
pattern_detect=0

Inside foo after eval.....
clk=0
reset=0
din=0
pattern_detect=0
=============fsm_lock : New Iteration===========
Instance : 0

Inside foo before eval.....
clk=0
reset=0
din=0
pattern_detect=0

Inside foo after eval.....
clk=0
reset=0
din=1
pattern_detect=0

Initial Transient Solution
--------------------------

Node                                   Voltage
----                                   -------
net-_r1-pad1_                                0
reset                                        0
clk                                          0
din                                          5
out                                          0
v3#branch                                    0
v2#branch                                    0
v1#branch                                    0
a2#branch_1_0                                0

=============fsm_lock : New Iteration===========
Instance : 0

Inside foo before eval.....
clk=0
reset=0
din=1
pattern_detect=0

Inside foo after eval.....
clk=0
reset=0
din=1
pattern_detect=0
=============fsm_lock : New Iteration===========
Instance : 0

Inside foo before eval.....
clk=0
reset=0
din=1
pattern_detect=0

Inside foo after eval.....
clk=0
reset=0
din=0
pattern_detect=0
=============fsm_lock : New Iteration===========
Instance : 0

Inside foo before eval.....
clk=0
reset=0
din=0
pattern_detect=0

Inside foo after eval.....
clk=0
reset=1
din=0
pattern_detect=0
=============fsm_lock : New Iteration===========
Instance : 0

Inside foo before eval.....
clk=0
reset=1
din=0
pattern_detect=0

Inside foo after eval.....
clk=1
reset=1
din=0
pattern_detect=0
=============fsm_lock : New Iteration===========
Instance : 0

Inside foo before eval.....
clk=1
reset=1
din=0
pattern_detect=0

Inside foo after eval.....
clk=1
reset=1
din=0
pattern_detect=0
=============fsm_lock : New Iteration===========
Instance : 0

Inside foo before eval.....
clk=1
reset=1
din=0
pattern_detect=0

Inside foo after eval.....
clk=1
reset=1
din=0
pattern_detect=0
=============fsm_lock : New Iteration===========
Instance : 0

Inside foo before eval.....
clk=1
reset=1
din=0
pattern_detect=0

Inside foo after eval.....
clk=0
reset=1
din=0
pattern_detect=0
=============fsm_lock : New Iteration===========
Instance : 0

Inside foo before eval.....
clk=0
reset=1
din=0
pattern_detect=0

Inside foo after eval.....
clk=0
reset=0
din=0
pattern_detect=0
=============fsm_lock : New Iteration===========
Instance : 0

Inside foo before eval.....
clk=0
reset=0
din=0
pattern_detect=0

Inside foo after eval.....
clk=0
reset=0
din=1
pattern_detect=0
=============fsm_lock : New Iteration===========
Instance : 0

Inside foo before eval.....
clk=0
reset=0
din=1
pattern_detect=0

Inside foo after eval.....
clk=0
reset=0
din=1
pattern_detect=0
=============fsm_lock : New Iteration===========
Instance : 0

Inside foo before eval.....
clk=0
reset=0
din=1
pattern_detect=0

Inside foo after eval.....
clk=1
reset=0
din=1
pattern_detect=0
=============fsm_lock : New Iteration===========
Instance : 0

Inside foo before eval.....
clk=1
reset=0
din=1
pattern_detect=0

Inside foo after eval.....
clk=1
reset=0
din=1
pattern_detect=0
=============fsm_lock : New Iteration===========
Instance : 0

Inside foo before eval.....
clk=1
reset=0
din=1
pattern_detect=0

Inside foo after eval.....
clk=1
reset=0
din=1
pattern_detect=0
=============fsm_lock : New Iteration===========
Instance : 0

Inside foo before eval.....
clk=1
reset=0
din=1
pattern_detect=0

Inside foo after eval.....
clk=0
reset=0
din=1
pattern_detect=0
=============fsm_lock : New Iteration===========
Instance : 0

Inside foo before eval.....
clk=0
reset=0
din=1
pattern_detect=0

Inside foo after eval.....
clk=1
reset=0
din=1
pattern_detect=0
=============fsm_lock : New Iteration===========
Instance : 0

Inside foo before eval.....
clk=1
reset=0
din=1
pattern_detect=0

Inside foo after eval.....
clk=1
reset=0
din=1
pattern_detect=0
=============fsm_lock : New Iteration===========
Instance : 0

Inside foo before eval.....
clk=1
reset=0
din=1
pattern_detect=0

Inside foo after eval.....
clk=1
reset=0
din=1
pattern_detect=0
=============fsm_lock : New Iteration===========
Instance : 0

Inside foo before eval.....
clk=1
reset=0
din=1
pattern_detect=0

Inside foo after eval.....
clk=1
reset=0
din=0
pattern_detect=0
=============fsm_lock : New Iteration===========
Instance : 0

Inside foo before eval.....
clk=1
reset=0
din=0
pattern_detect=0

Inside foo after eval.....
clk=1
reset=0
din=0
pattern_detect=0
=============fsm_lock : New Iteration===========
Instance : 0

Inside foo before eval.....
clk=1
reset=0
din=0
pattern_detect=0

Inside foo after eval.....
clk=0
reset=0
din=0
pattern_detect=0
=============fsm_lock : New Iteration===========
Instance : 0

Inside foo before eval.....
clk=0
reset=0
din=0
pattern_detect=0

Inside foo after eval.....
clk=1
reset=0
din=0
pattern_detect=0
=============fsm_lock : New Iteration===========
Instance : 0

Inside foo before eval.....
clk=1
reset=0
din=0
pattern_detect=0

Inside foo after eval.....
clk=1
reset=0
din=0
pattern_detect=0
=============fsm_lock : New Iteration===========
Instance : 0

Inside foo before eval.....
clk=1
reset=0
din=0
pattern_detect=0

Inside foo after eval.....
clk=1
reset=0
din=1
pattern_detect=0
=============fsm_lock : New Iteration===========
Instance : 0

Inside foo before eval.....
clk=1
reset=0
din=1
pattern_detect=0

Inside foo after eval.....
clk=1
reset=0
din=1
pattern_detect=0
=============fsm_lock : New Iteration===========
Instance : 0

Inside foo before eval.....
clk=1
reset=0
din=1
pattern_detect=0

Inside foo after eval.....
clk=1
reset=0
din=1
pattern_detect=0
=============fsm_lock : New Iteration===========
Instance : 0

Inside foo before eval.....
clk=1
reset=0
din=1
pattern_detect=0

Inside foo after eval.....
clk=0
reset=0
din=1
pattern_detect=0
=============fsm_lock : New Iteration===========
Instance : 0

Inside foo before eval.....
clk=0
reset=0
din=1
pattern_detect=0

Inside foo after eval.....
clk=1
reset=0
din=1
pattern_detect=1
=============fsm_lock : New Iteration===========
Instance : 0

Inside foo before eval.....
clk=1
reset=0
din=1
pattern_detect=1

Inside foo after eval.....
clk=1
reset=0
din=1
pattern_detect=1
=============fsm_lock : New Iteration===========
Instance : 0

Inside foo before eval.....
clk=1
reset=0
din=1
pattern_detect=1

Inside foo after eval.....
clk=1
reset=0
din=1
pattern_detect=1
=============fsm_lock : New Iteration===========
Instance : 0

Inside foo before eval.....
clk=1
reset=0
din=1
pattern_detect=1

Inside foo after eval.....
clk=1
reset=0
din=0
pattern_detect=1
=============fsm_lock : New Iteration===========
Instance : 0

Inside foo before eval.....
clk=1
reset=0
din=0
pattern_detect=1

Inside foo after eval.....
clk=1
reset=0
din=0
pattern_detect=1
=============fsm_lock : New Iteration===========
Instance : 0

Inside foo before eval.....
clk=1
reset=0
din=0
pattern_detect=1

Inside foo after eval.....
clk=0
reset=0
din=0
pattern_detect=1
=============fsm_lock : New Iteration===========
Instance : 0

Inside foo before eval.....
clk=0
reset=0
din=0
pattern_detect=1

Inside foo after eval.....
clk=1
reset=0
din=0
pattern_detect=0
=============fsm_lock : New Iteration===========
Instance : 0

Inside foo before eval.....
clk=1
reset=0
din=0
pattern_detect=0

Inside foo after eval.....
clk=1
reset=0
din=0
pattern_detect=0
=============fsm_lock : New Iteration===========
Instance : 0

Inside foo before eval.....
clk=1
reset=0
din=0
pattern_detect=0

Inside foo after eval.....
clk=1
reset=0
din=1
pattern_detect=0
=============fsm_lock : New Iteration===========
Instance : 0

Inside foo before eval.....
clk=1
reset=0
din=1
pattern_detect=0

Inside foo after eval.....
clk=1
reset=0
din=1
pattern_detect=0
=============fsm_lock : New Iteration===========
Instance : 0

Inside foo before eval.....
clk=1
reset=0
din=1
pattern_detect=0

Inside foo after eval.....
clk=0
reset=0
din=1
pattern_detect=0
=============fsm_lock : New Iteration===========
Instance : 0

Inside foo before eval.....
clk=0
reset=0
din=1
pattern_detect=0

Inside foo after eval.....
clk=1
reset=0
din=1
pattern_detect=0
=============fsm_lock : New Iteration===========
Instance : 0

Inside foo before eval.....
clk=1
reset=0
din=1
pattern_detect=0

Inside foo after eval.....
clk=1
reset=0
din=1
pattern_detect=0
=============fsm_lock : New Iteration===========
Instance : 0

Inside foo before eval.....
clk=1
reset=0
din=1
pattern_detect=0

Inside foo after eval.....
clk=1
reset=0
din=1
pattern_detect=0
=============fsm_lock : New Iteration===========
Instance : 0

Inside foo before eval.....
clk=1
reset=0
din=1
pattern_detect=0

Inside foo after eval.....
clk=0
reset=0
din=1
pattern_detect=0
=============fsm_lock : New Iteration===========
Instance : 0

Inside foo before eval.....
clk=0
reset=0
din=1
pattern_detect=0

Inside foo after eval.....
clk=0
reset=0
din=0
pattern_detect=0
=============fsm_lock : New Iteration===========
Instance : 0

Inside foo before eval.....
clk=0
reset=0
din=0
pattern_detect=0

Inside foo after eval.....
clk=1
reset=0
din=0
pattern_detect=0
=============fsm_lock : New Iteration===========
Instance : 0

Inside foo before eval.....
clk=1
reset=0
din=0
pattern_detect=0

Inside foo after eval.....
clk=1
reset=0
din=0
pattern_detect=0
=============fsm_lock : New Iteration===========
Instance : 0

Inside foo before eval.....
clk=1
reset=0
din=0
pattern_detect=0

Inside foo after eval.....
clk=1
reset=0
din=0
pattern_detect=0
=============fsm_lock : New Iteration===========
Instance : 0

Inside foo before eval.....
clk=1
reset=0
din=0
pattern_detect=0

Inside foo after eval.....
clk=0
reset=0
din=0
pattern_detect=0
=============fsm_lock : New Iteration===========
Instance : 0

Inside foo before eval.....
clk=0
reset=0
din=0
pattern_detect=0

Inside foo after eval.....
clk=0
reset=0
din=1
pattern_detect=0
=============fsm_lock : New Iteration===========
Instance : 0

Inside foo before eval.....
clk=0
reset=0
din=1
pattern_detect=0

Inside foo after eval.....
clk=1
reset=0
din=1
pattern_detect=1
=============fsm_lock : New Iteration===========
Instance : 0

Inside foo before eval.....
clk=1
reset=0
din=1
pattern_detect=1

Inside foo after eval.....
clk=1
reset=0
din=1
pattern_detect=1
=============fsm_lock : New Iteration===========
Instance : 0

Inside foo before eval.....
clk=1
reset=0
din=1
pattern_detect=1

Inside foo after eval.....
clk=1
reset=0
din=1
pattern_detect=1
=============fsm_lock : New Iteration===========
Instance : 0

Inside foo before eval.....
clk=1
reset=0
din=1
pattern_detect=1

Inside foo after eval.....
clk=0
reset=0
din=1
pattern_detect=1
=============fsm_lock : New Iteration===========
Instance : 0

Inside foo before eval.....
clk=0
reset=0
din=1
pattern_detect=1

Inside foo after eval.....
clk=0
reset=0
din=1
pattern_detect=1
=============fsm_lock : New Iteration===========
Instance : 0

Inside foo before eval.....
clk=0
reset=0
din=1
pattern_detect=1

Inside foo after eval.....
clk=0
reset=0
din=0
pattern_detect=1
=============fsm_lock : New Iteration===========
Instance : 0

Inside foo before eval.....
clk=0
reset=0
din=0
pattern_detect=1

Inside foo after eval.....
clk=1
reset=0
din=0
pattern_detect=0
=============fsm_lock : New Iteration===========
Instance : 0

Inside foo before eval.....
clk=1
reset=0
din=0
pattern_detect=0

Inside foo after eval.....
clk=1
reset=0
din=0
pattern_detect=0
=============fsm_lock : New Iteration===========
Instance : 0

Inside foo before eval.....
clk=1
reset=0
din=0
pattern_detect=0

Inside foo after eval.....
clk=1
reset=0
din=0
pattern_detect=0
=============fsm_lock : New Iteration===========
Instance : 0

Inside foo before eval.....
clk=1
reset=0
din=0
pattern_detect=0

Inside foo after eval.....
clk=0
reset=0
din=0
pattern_detect=0
=============fsm_lock : New Iteration===========
Instance : 0

Inside foo before eval.....
clk=0
reset=0
din=0
pattern_detect=0

Inside foo after eval.....
clk=0
reset=0
din=1
pattern_detect=0
=============fsm_lock : New Iteration===========
Instance : 0

Inside foo before eval.....
clk=0
reset=0
din=1
pattern_detect=0

Inside foo after eval.....
clk=0
reset=0
din=1
pattern_detect=0
=============fsm_lock : New Iteration===========
Instance : 0

Inside foo before eval.....
clk=0
reset=0
din=1
pattern_detect=0

Inside foo after eval.....
clk=1
reset=0
din=1
pattern_detect=0
=============fsm_lock : New Iteration===========
Instance : 0

Inside foo before eval.....
clk=1
reset=0
din=1
pattern_detect=0

Inside foo after eval.....
clk=1
reset=0
din=1
pattern_detect=0
=============fsm_lock : New Iteration===========
Instance : 0

Inside foo before eval.....
clk=1
reset=0
din=1
pattern_detect=0

Inside foo after eval.....
clk=1
reset=0
din=1
pattern_detect=0
=============fsm_lock : New Iteration===========
Instance : 0

Inside foo before eval.....
clk=1
reset=0
din=1
pattern_detect=0

Inside foo after eval.....
clk=0
reset=0
din=1
pattern_detect=0
=============fsm_lock : New Iteration===========
Instance : 0

Inside foo before eval.....
clk=0
reset=0
din=1
pattern_detect=0

Inside foo after eval.....
clk=1
reset=0
din=1
pattern_detect=0
=============fsm_lock : New Iteration===========
Instance : 0

Inside foo before eval.....
clk=1
reset=0
din=1
pattern_detect=0

Inside foo after eval.....
clk=1
reset=0
din=1
pattern_detect=0
=============fsm_lock : New Iteration===========
Instance : 0

Inside foo before eval.....
clk=1
reset=0
din=1
pattern_detect=0

Inside foo after eval.....
clk=1
reset=0
din=1
pattern_detect=0
=============fsm_lock : New Iteration===========
Instance : 0

Inside foo before eval.....
clk=1
reset=0
din=1
pattern_detect=0

Inside foo after eval.....
clk=1
reset=0
din=0
pattern_detect=0
=============fsm_lock : New Iteration===========
Instance : 0

Inside foo before eval.....
clk=1
reset=0
din=0
pattern_detect=0

Inside foo after eval.....
clk=1
reset=0
din=0
pattern_detect=0
=============fsm_lock : New Iteration===========
Instance : 0

Inside foo before eval.....
clk=1
reset=0
din=0
pattern_detect=0

Inside foo after eval.....
clk=0
reset=0
din=0
pattern_detect=0
=============fsm_lock : New Iteration===========
Instance : 0

Inside foo before eval.....
clk=0
reset=0
din=0
pattern_detect=0

Inside foo after eval.....
clk=1
reset=0
din=0
pattern_detect=0
=============fsm_lock : New Iteration===========
Instance : 0

Inside foo before eval.....
clk=1
reset=0
din=0
pattern_detect=0

Inside foo after eval.....
clk=1
reset=0
din=0
pattern_detect=0
=============fsm_lock : New Iteration===========
Instance : 0

Inside foo before eval.....
clk=1
reset=0
din=0
pattern_detect=0

Inside foo after eval.....
clk=1
reset=0
din=1
pattern_detect=0
=============fsm_lock : New Iteration===========
Instance : 0

Inside foo before eval.....
clk=1
reset=0
din=1
pattern_detect=0

Inside foo after eval.....
clk=1
reset=0
din=1
pattern_detect=0
=============fsm_lock : New Iteration===========
Instance : 0

Inside foo before eval.....
clk=1
reset=0
din=1
pattern_detect=0

Inside foo after eval.....
clk=1
reset=0
din=1
pattern_detect=0
=============fsm_lock : New Iteration===========
Instance : 0

Inside foo before eval.....
clk=1
reset=0
din=1
pattern_detect=0

Inside foo after eval.....
clk=0
reset=0
din=1
pattern_detect=0
=============fsm_lock : New Iteration===========
Instance : 0

Inside foo before eval.....
clk=0
reset=0
din=1
pattern_detect=0

Inside foo after eval.....
clk=1
reset=0
din=1
pattern_detect=1
=============fsm_lock : New Iteration===========
Instance : 0

Inside foo before eval.....
clk=1
reset=0
din=1
pattern_detect=1

Inside foo after eval.....
clk=1
reset=0
din=1
pattern_detect=1
=============fsm_lock : New Iteration===========
Instance : 0

Inside foo before eval.....
clk=1
reset=0
din=1
pattern_detect=1

Inside foo after eval.....
clk=1
reset=0
din=1
pattern_detect=1
=============fsm_lock : New Iteration===========
Instance : 0

Inside foo before eval.....
clk=1
reset=0
din=1
pattern_detect=1

Inside foo after eval.....
clk=1
reset=0
din=0
pattern_detect=1
=============fsm_lock : New Iteration===========
Instance : 0

Inside foo before eval.....
clk=1
reset=0
din=0
pattern_detect=1

Inside foo after eval.....
clk=1
reset=0
din=0
pattern_detect=1
=============fsm_lock : New Iteration===========
Instance : 0

Inside foo before eval.....
clk=1
reset=0
din=0
pattern_detect=1

Inside foo after eval.....
clk=0
reset=0
din=0
pattern_detect=1
=============fsm_lock : New Iteration===========
Instance : 0

Inside foo before eval.....
clk=0
reset=0
din=0
pattern_detect=1

Inside foo after eval.....
clk=1
reset=0
din=0
pattern_detect=0
=============fsm_lock : New Iteration===========
Instance : 0

Inside foo before eval.....
clk=1
reset=0
din=0
pattern_detect=0

Inside foo after eval.....
clk=1
reset=0
din=0
pattern_detect=0
=============fsm_lock : New Iteration===========
Instance : 0

Inside foo before eval.....
clk=1
reset=0
din=0
pattern_detect=0

Inside foo after eval.....
clk=1
reset=0
din=1
pattern_detect=0
=============fsm_lock : New Iteration===========
Instance : 0

Inside foo before eval.....
clk=1
reset=0
din=1
pattern_detect=0

Inside foo after eval.....
clk=1
reset=0
din=1
pattern_detect=0
=============fsm_lock : New Iteration===========
Instance : 0

Inside foo before eval.....
clk=1
reset=0
din=1
pattern_detect=0

Inside foo after eval.....
clk=1
reset=0
din=1
pattern_detect=0
=============fsm_lock : New Iteration===========
Instance : 0

Inside foo before eval.....
clk=1
reset=0
din=1
pattern_detect=0

Inside foo after eval.....
clk=0
reset=0
din=1
pattern_detect=0
=============fsm_lock : New Iteration===========
Instance : 0

Inside foo before eval.....
clk=0
reset=0
din=1
pattern_detect=0

Inside foo after eval.....
clk=1
reset=0
din=1
pattern_detect=0
=============fsm_lock : New Iteration===========
Instance : 0

Inside foo before eval.....
clk=1
reset=0
din=1
pattern_detect=0

Inside foo after eval.....
clk=1
reset=0
din=1
pattern_detect=0
=============fsm_lock : New Iteration===========
Instance : 0

Inside foo before eval.....
clk=1
reset=0
din=1
pattern_detect=0

Inside foo after eval.....
clk=1
reset=0
din=1
pattern_detect=0
=============fsm_lock : New Iteration===========
Instance : 0

Inside foo before eval.....
clk=1
reset=0
din=1
pattern_detect=0

Inside foo after eval.....
clk=0
reset=0
din=1
pattern_detect=0
=============fsm_lock : New Iteration===========
Instance : 0

Inside foo before eval.....
clk=0
reset=0
din=1
pattern_detect=0

Inside foo after eval.....
clk=0
reset=0
din=1
pattern_detect=0
=============fsm_lock : New Iteration===========
Instance : 0

Inside foo before eval.....
clk=0
reset=0
din=1
pattern_detect=0

Inside foo after eval.....
clk=0
reset=0
din=0
pattern_detect=0
=============fsm_lock : New Iteration===========
Instance : 0

Inside foo before eval.....
clk=0
reset=0
din=0
pattern_detect=0

Inside foo after eval.....
clk=1
reset=0
din=0
pattern_detect=0
=============fsm_lock : New Iteration===========
Instance : 0

Inside foo before eval.....
clk=1
reset=0
din=0
pattern_detect=0

Inside foo after eval.....
clk=1
reset=0
din=0
pattern_detect=0
=============fsm_lock : New Iteration===========
Instance : 0

Inside foo before eval.....
clk=1
reset=0
din=0
pattern_detect=0

Inside foo after eval.....
clk=1
reset=0
din=0
pattern_detect=0
=============fsm_lock : New Iteration===========
Instance : 0

Inside foo before eval.....
clk=1
reset=0
din=0
pattern_detect=0

Inside foo after eval.....
clk=0
reset=0
din=0
pattern_detect=0
=============fsm_lock : New Iteration===========
Instance : 0

Inside foo before eval.....
clk=0
reset=0
din=0
pattern_detect=0

Inside foo after eval.....
clk=0
reset=0
din=1
pattern_detect=0
=============fsm_lock : New Iteration===========
Instance : 0

Inside foo before eval.....
clk=0
reset=0
din=1
pattern_detect=0

Inside foo after eval.....
clk=0
reset=0
din=1
pattern_detect=0
=============fsm_lock : New Iteration===========
Instance : 0

Inside foo before eval.....
clk=0
reset=0
din=1
pattern_detect=0

Inside foo after eval.....
clk=1
reset=0
din=1
pattern_detect=1
=============fsm_lock : New Iteration===========
Instance : 0

Inside foo before eval.....
clk=1
reset=0
din=1
pattern_detect=1

Inside foo after eval.....
clk=1
reset=0
din=1
pattern_detect=1
=============fsm_lock : New Iteration===========
Instance : 0

Inside foo before eval.....
clk=1
reset=0
din=1
pattern_detect=1

Inside foo after eval.....
clk=1
reset=0
din=1
pattern_detect=1
=============fsm_lock : New Iteration===========
Instance : 0

Inside foo before eval.....
clk=1
reset=0
din=1
pattern_detect=1

Inside foo after eval.....
clk=0
reset=0
din=1
pattern_detect=1
=============fsm_lock : New Iteration===========
Instance : 0

Inside foo before eval.....
clk=0
reset=0
din=1
pattern_detect=1

Inside foo after eval.....
clk=0
reset=0
din=1
pattern_detect=1
=============fsm_lock : New Iteration===========
Instance : 0

Inside foo before eval.....
clk=0
reset=0
din=1
pattern_detect=1

Inside foo after eval.....
clk=0
reset=0
din=0
pattern_detect=1
=============fsm_lock : New Iteration===========
Instance : 0

Inside foo before eval.....
clk=0
reset=0
din=0
pattern_detect=1

Inside foo after eval.....
clk=1
reset=0
din=0
pattern_detect=0
=============fsm_lock : New Iteration===========
Instance : 0

Inside foo before eval.....
clk=1
reset=0
din=0
pattern_detect=0

Inside foo after eval.....
clk=1
reset=0
din=0
pattern_detect=0
=============fsm_lock : New Iteration===========
Instance : 0

Inside foo before eval.....
clk=1
reset=0
din=0
pattern_detect=0

Inside foo after eval.....
clk=1
reset=0
din=0
pattern_detect=0
=============fsm_lock : New Iteration===========
Instance : 0

Inside foo before eval.....
clk=1
reset=0
din=0
pattern_detect=0

Inside foo after eval.....
clk=0
reset=0
din=0
pattern_detect=0
=============fsm_lock : New Iteration===========
Instance : 0

Inside foo before eval.....
clk=0
reset=0
din=0
pattern_detect=0

Inside foo after eval.....
clk=0
reset=0
din=1
pattern_detect=0
=============fsm_lock : New Iteration===========
Instance : 0

Inside foo before eval.....
clk=0
reset=0
din=1
pattern_detect=0

Inside foo after eval.....
clk=0
reset=0
din=1
pattern_detect=0
=============fsm_lock : New Iteration===========
Instance : 0

Inside foo before eval.....
clk=0
reset=0
din=1
pattern_detect=0

Inside foo after eval.....
clk=1
reset=0
din=1
pattern_detect=0
=============fsm_lock : New Iteration===========
Instance : 0

Inside foo before eval.....
clk=1
reset=0
din=1
pattern_detect=0

Inside foo after eval.....
clk=1
reset=0
din=1
pattern_detect=0
=============fsm_lock : New Iteration===========
Instance : 0

Inside foo before eval.....
clk=1
reset=0
din=1
pattern_detect=0

Inside foo after eval.....
clk=1
reset=0
din=1
pattern_detect=0
=============fsm_lock : New Iteration===========
Instance : 0

Inside foo before eval.....
clk=1
reset=0
din=1
pattern_detect=0

Inside foo after eval.....
clk=0
reset=0
din=1
pattern_detect=0

No. of Data Rows : 1607
ERROR: (internal)  This operation is not defined for display type PrinterOnly.
Can't open viewport for graphics.
binary raw file "/home/bhawarth/eSim-Workspace/smart_lock/smart_lock.raw"
Reducing trtol to 1 for xspice 'A' devices
Doing analysis at TEMP = 27.000000 and TNOM = 27.000000

Warning: v3: no DC value, transient time 0 value used
Warning: v2: no DC value, transient time 0 value used
Warning: v1: no DC value, transient time 0 value used
No. of Data Columns : 10  
=============fsm_lock : New Iteration===========
Instance : 1

Inside foo before eval.....
clk=0
reset=0
din=0
pattern_detect=0

Inside foo after eval.....
clk=0
reset=0
din=0
pattern_detect=0
=============fsm_lock : New Iteration===========
Instance : 1

Inside foo before eval.....
clk=0
reset=0
din=0
pattern_detect=0

Inside foo after eval.....
clk=0
reset=0
din=0
pattern_detect=0
=============fsm_lock : New Iteration===========
Instance : 1

Inside foo before eval.....
clk=0
reset=0
din=0
pattern_detect=0

Inside foo after eval.....
clk=0
reset=0
din=1
pattern_detect=0

Initial Transient Solution
--------------------------

Node                                   Voltage
----                                   -------
net-_r1-pad1_                                0
reset                                        0
clk                                          0
din                                          5
out                                          0
v3#branch                                    0
v2#branch                                    0
v1#branch                                    0
a2#branch_1_0                                0

=============fsm_lock : New Iteration===========
Instance : 1

Inside foo before eval.....
clk=0
reset=0
din=1
pattern_detect=0

Inside foo after eval.....
clk=0
reset=0
din=1
pattern_detect=0
=============fsm_lock : New Iteration===========
Instance : 1

Inside foo before eval.....
clk=0
reset=0
din=1
pattern_detect=0

Inside foo after eval.....
clk=0
reset=0
din=0
pattern_detect=0
=============fsm_lock : New Iteration===========
Instance : 1

Inside foo before eval.....
clk=0
reset=0
din=0
pattern_detect=0

Inside foo after eval.....
clk=0
reset=1
din=0
pattern_detect=0
=============fsm_lock : New Iteration===========
Instance : 1

Inside foo before eval.....
clk=0
reset=1
din=0
pattern_detect=0

Inside foo after eval.....
clk=1
reset=1
din=0
pattern_detect=0
=============fsm_lock : New Iteration===========
Instance : 1

Inside foo before eval.....
clk=1
reset=1
din=0
pattern_detect=0

Inside foo after eval.....
clk=1
reset=1
din=0
pattern_detect=0
=============fsm_lock : New Iteration===========
Instance : 1

Inside foo before eval.....
clk=1
reset=1
din=0
pattern_detect=0

Inside foo after eval.....
clk=1
reset=1
din=0
pattern_detect=0
=============fsm_lock : New Iteration===========
Instance : 1

Inside foo before eval.....
clk=1
reset=1
din=0
pattern_detect=0

Inside foo after eval.....
clk=0
reset=1
din=0
pattern_detect=0
=============fsm_lock : New Iteration===========
Instance : 1

Inside foo before eval.....
clk=0
reset=1
din=0
pattern_detect=0

Inside foo after eval.....
clk=0
reset=0
din=0
pattern_detect=0
=============fsm_lock : New Iteration===========
Instance : 1

Inside foo before eval.....
clk=0
reset=0
din=0
pattern_detect=0

Inside foo after eval.....
clk=0
reset=0
din=1
pattern_detect=0
=============fsm_lock : New Iteration===========
Instance : 1

Inside foo before eval.....
clk=0
reset=0
din=1
pattern_detect=0

Inside foo after eval.....
clk=0
reset=0
din=1
pattern_detect=0
=============fsm_lock : New Iteration===========
Instance : 1

Inside foo before eval.....
clk=0
reset=0
din=1
pattern_detect=0

Inside foo after eval.....
clk=1
reset=0
din=1
pattern_detect=0
=============fsm_lock : New Iteration===========
Instance : 1

Inside foo before eval.....
clk=1
reset=0
din=1
pattern_detect=0

Inside foo after eval.....
clk=1
reset=0
din=1
pattern_detect=0
=============fsm_lock : New Iteration===========
Instance : 1

Inside foo before eval.....
clk=1
reset=0
din=1
pattern_detect=0

Inside foo after eval.....
clk=1
reset=0
din=1
pattern_detect=0
=============fsm_lock : New Iteration===========
Instance : 1

Inside foo before eval.....
clk=1
reset=0
din=1
pattern_detect=0

Inside foo after eval.....
clk=0
reset=0
din=1
pattern_detect=0
=============fsm_lock : New Iteration===========
Instance : 1

Inside foo before eval.....
clk=0
reset=0
din=1
pattern_detect=0

Inside foo after eval.....
clk=1
reset=0
din=1
pattern_detect=0
=============fsm_lock : New Iteration===========
Instance : 1

Inside foo before eval.....
clk=1
reset=0
din=1
pattern_detect=0

Inside foo after eval.....
clk=1
reset=0
din=1
pattern_detect=0
=============fsm_lock : New Iteration===========
Instance : 1

Inside foo before eval.....
clk=1
reset=0
din=1
pattern_detect=0

Inside foo after eval.....
clk=1
reset=0
din=1
pattern_detect=0
=============fsm_lock : New Iteration===========
Instance : 1

Inside foo before eval.....
clk=1
reset=0
din=1
pattern_detect=0

Inside foo after eval.....
clk=1
reset=0
din=0
pattern_detect=0
=============fsm_lock : New Iteration===========
Instance : 1

Inside foo before eval.....
clk=1
reset=0
din=0
pattern_detect=0

Inside foo after eval.....
clk=1
reset=0
din=0
pattern_detect=0
=============fsm_lock : New Iteration===========
Instance : 1

Inside foo before eval.....
clk=1
reset=0
din=0
pattern_detect=0

Inside foo after eval.....
clk=0
reset=0
din=0
pattern_detect=0
=============fsm_lock : New Iteration===========
Instance : 1

Inside foo before eval.....
clk=0
reset=0
din=0
pattern_detect=0

Inside foo after eval.....
clk=1
reset=0
din=0
pattern_detect=0
=============fsm_lock : New Iteration===========
Instance : 1

Inside foo before eval.....
clk=1
reset=0
din=0
pattern_detect=0

Inside foo after eval.....
clk=1
reset=0
din=0
pattern_detect=0
=============fsm_lock : New Iteration===========
Instance : 1

Inside foo before eval.....
clk=1
reset=0
din=0
pattern_detect=0

Inside foo after eval.....
clk=1
reset=0
din=1
pattern_detect=0
=============fsm_lock : New Iteration===========
Instance : 1

Inside foo before eval.....
clk=1
reset=0
din=1
pattern_detect=0

Inside foo after eval.....
clk=1
reset=0
din=1
pattern_detect=0
=============fsm_lock : New Iteration===========
Instance : 1

Inside foo before eval.....
clk=1
reset=0
din=1
pattern_detect=0

Inside foo after eval.....
clk=1
reset=0
din=1
pattern_detect=0
=============fsm_lock : New Iteration===========
Instance : 1

Inside foo before eval.....
clk=1
reset=0
din=1
pattern_detect=0

Inside foo after eval.....
clk=0
reset=0
din=1
pattern_detect=0
=============fsm_lock : New Iteration===========
Instance : 1

Inside foo before eval.....
clk=0
reset=0
din=1
pattern_detect=0

Inside foo after eval.....
clk=1
reset=0
din=1
pattern_detect=1
=============fsm_lock : New Iteration===========
Instance : 1

Inside foo before eval.....
clk=1
reset=0
din=1
pattern_detect=1

Inside foo after eval.....
clk=1
reset=0
din=1
pattern_detect=1
=============fsm_lock : New Iteration===========
Instance : 1

Inside foo before eval.....
clk=1
reset=0
din=1
pattern_detect=1

Inside foo after eval.....
clk=1
reset=0
din=1
pattern_detect=1
=============fsm_lock : New Iteration===========
Instance : 1

Inside foo before eval.....
clk=1
reset=0
din=1
pattern_detect=1

Inside foo after eval.....
clk=1
reset=0
din=0
pattern_detect=1
=============fsm_lock : New Iteration===========
Instance : 1

Inside foo before eval.....
clk=1
reset=0
din=0
pattern_detect=1

Inside foo after eval.....
clk=1
reset=0
din=0
pattern_detect=1
=============fsm_lock : New Iteration===========
Instance : 1

Inside foo before eval.....
clk=1
reset=0
din=0
pattern_detect=1

Inside foo after eval.....
clk=0
reset=0
din=0
pattern_detect=1
=============fsm_lock : New Iteration===========
Instance : 1

Inside foo before eval.....
clk=0
reset=0
din=0
pattern_detect=1

Inside foo after eval.....
clk=1
reset=0
din=0
pattern_detect=0
=============fsm_lock : New Iteration===========
Instance : 1

Inside foo before eval.....
clk=1
reset=0
din=0
pattern_detect=0

Inside foo after eval.....
clk=1
reset=0
din=0
pattern_detect=0
=============fsm_lock : New Iteration===========
Instance : 1

Inside foo before eval.....
clk=1
reset=0
din=0
pattern_detect=0

Inside foo after eval.....
clk=1
reset=0
din=1
pattern_detect=0
=============fsm_lock : New Iteration===========
Instance : 1

Inside foo before eval.....
clk=1
reset=0
din=1
pattern_detect=0

Inside foo after eval.....
clk=1
reset=0
din=1
pattern_detect=0
=============fsm_lock : New Iteration===========
Instance : 1

Inside foo before eval.....
clk=1
reset=0
din=1
pattern_detect=0

Inside foo after eval.....
clk=0
reset=0
din=1
pattern_detect=0
=============fsm_lock : New Iteration===========
Instance : 1

Inside foo before eval.....
clk=0
reset=0
din=1
pattern_detect=0

Inside foo after eval.....
clk=1
reset=0
din=1
pattern_detect=0
=============fsm_lock : New Iteration===========
Instance : 1

Inside foo before eval.....
clk=1
reset=0
din=1
pattern_detect=0

Inside foo after eval.....
clk=1
reset=0
din=1
pattern_detect=0
=============fsm_lock : New Iteration===========
Instance : 1

Inside foo before eval.....
clk=1
reset=0
din=1
pattern_detect=0

Inside foo after eval.....
clk=1
reset=0
din=1
pattern_detect=0
=============fsm_lock : New Iteration===========
Instance : 1

Inside foo before eval.....
clk=1
reset=0
din=1
pattern_detect=0

Inside foo after eval.....
clk=0
reset=0
din=1
pattern_detect=0
=============fsm_lock : New Iteration===========
Instance : 1

Inside foo before eval.....
clk=0
reset=0
din=1
pattern_detect=0

Inside foo after eval.....
clk=0
reset=0
din=0
pattern_detect=0
=============fsm_lock : New Iteration===========
Instance : 1

Inside foo before eval.....
clk=0
reset=0
din=0
pattern_detect=0

Inside foo after eval.....
clk=1
reset=0
din=0
pattern_detect=0
=============fsm_lock : New Iteration===========
Instance : 1

Inside foo before eval.....
clk=1
reset=0
din=0
pattern_detect=0

Inside foo after eval.....
clk=1
reset=0
din=0
pattern_detect=0
=============fsm_lock : New Iteration===========
Instance : 1

Inside foo before eval.....
clk=1
reset=0
din=0
pattern_detect=0

Inside foo after eval.....
clk=1
reset=0
din=0
pattern_detect=0
=============fsm_lock : New Iteration===========
Instance : 1

Inside foo before eval.....
clk=1
reset=0
din=0
pattern_detect=0

Inside foo after eval.....
clk=0
reset=0
din=0
pattern_detect=0
=============fsm_lock : New Iteration===========
Instance : 1

Inside foo before eval.....
clk=0
reset=0
din=0
pattern_detect=0

Inside foo after eval.....
clk=0
reset=0
din=1
pattern_detect=0
=============fsm_lock : New Iteration===========
Instance : 1

Inside foo before eval.....
clk=0
reset=0
din=1
pattern_detect=0

Inside foo after eval.....
clk=1
reset=0
din=1
pattern_detect=1
=============fsm_lock : New Iteration===========
Instance : 1

Inside foo before eval.....
clk=1
reset=0
din=1
pattern_detect=1

Inside foo after eval.....
clk=1
reset=0
din=1
pattern_detect=1
=============fsm_lock : New Iteration===========
Instance : 1

Inside foo before eval.....
clk=1
reset=0
din=1
pattern_detect=1

Inside foo after eval.....
clk=1
reset=0
din=1
pattern_detect=1
=============fsm_lock : New Iteration===========
Instance : 1

Inside foo before eval.....
clk=1
reset=0
din=1
pattern_detect=1

Inside foo after eval.....
clk=0
reset=0
din=1
pattern_detect=1
=============fsm_lock : New Iteration===========
Instance : 1

Inside foo before eval.....
clk=0
reset=0
din=1
pattern_detect=1

Inside foo after eval.....
clk=0
reset=0
din=1
pattern_detect=1
=============fsm_lock : New Iteration===========
Instance : 1

Inside foo before eval.....
clk=0
reset=0
din=1
pattern_detect=1

Inside foo after eval.....
clk=0
reset=0
din=0
pattern_detect=1
=============fsm_lock : New Iteration===========
Instance : 1

Inside foo before eval.....
clk=0
reset=0
din=0
pattern_detect=1

Inside foo after eval.....
clk=1
reset=0
din=0
pattern_detect=0
=============fsm_lock : New Iteration===========
Instance : 1

Inside foo before eval.....
clk=1
reset=0
din=0
pattern_detect=0

Inside foo after eval.....
clk=1
reset=0
din=0
pattern_detect=0
=============fsm_lock : New Iteration===========
Instance : 1

Inside foo before eval.....
clk=1
reset=0
din=0
pattern_detect=0

Inside foo after eval.....
clk=1
reset=0
din=0
pattern_detect=0
=============fsm_lock : New Iteration===========
Instance : 1

Inside foo before eval.....
clk=1
reset=0
din=0
pattern_detect=0

Inside foo after eval.....
clk=0
reset=0
din=0
pattern_detect=0
=============fsm_lock : New Iteration===========
Instance : 1

Inside foo before eval.....
clk=0
reset=0
din=0
pattern_detect=0

Inside foo after eval.....
clk=0
reset=0
din=1
pattern_detect=0
=============fsm_lock : New Iteration===========
Instance : 1

Inside foo before eval.....
clk=0
reset=0
din=1
pattern_detect=0

Inside foo after eval.....
clk=0
reset=0
din=1
pattern_detect=0
=============fsm_lock : New Iteration===========
Instance : 1

Inside foo before eval.....
clk=0
reset=0
din=1
pattern_detect=0

Inside foo after eval.....
clk=1
reset=0
din=1
pattern_detect=0
=============fsm_lock : New Iteration===========
Instance : 1

Inside foo before eval.....
clk=1
reset=0
din=1
pattern_detect=0

Inside foo after eval.....
clk=1
reset=0
din=1
pattern_detect=0
=============fsm_lock : New Iteration===========
Instance : 1

Inside foo before eval.....
clk=1
reset=0
din=1
pattern_detect=0

Inside foo after eval.....
clk=1
reset=0
din=1
pattern_detect=0
=============fsm_lock : New Iteration===========
Instance : 1

Inside foo before eval.....
clk=1
reset=0
din=1
pattern_detect=0

Inside foo after eval.....
clk=0
reset=0
din=1
pattern_detect=0
=============fsm_lock : New Iteration===========
Instance : 1

Inside foo before eval.....
clk=0
reset=0
din=1
pattern_detect=0

Inside foo after eval.....
clk=1
reset=0
din=1
pattern_detect=0
=============fsm_lock : New Iteration===========
Instance : 1

Inside foo before eval.....
clk=1
reset=0
din=1
pattern_detect=0

Inside foo after eval.....
clk=1
reset=0
din=1
pattern_detect=0
=============fsm_lock : New Iteration===========
Instance : 1

Inside foo before eval.....
clk=1
reset=0
din=1
pattern_detect=0

Inside foo after eval.....
clk=1
reset=0
din=1
pattern_detect=0
=============fsm_lock : New Iteration===========
Instance : 1

Inside foo before eval.....
clk=1
reset=0
din=1
pattern_detect=0

Inside foo after eval.....
clk=1
reset=0
din=0
pattern_detect=0
=============fsm_lock : New Iteration===========
Instance : 1

Inside foo before eval.....
clk=1
reset=0
din=0
pattern_detect=0

Inside foo after eval.....
clk=1
reset=0
din=0
pattern_detect=0
=============fsm_lock : New Iteration===========
Instance : 1

Inside foo before eval.....
clk=1
reset=0
din=0
pattern_detect=0

Inside foo after eval.....
clk=0
reset=0
din=0
pattern_detect=0
=============fsm_lock : New Iteration===========
Instance : 1

Inside foo before eval.....
clk=0
reset=0
din=0
pattern_detect=0

Inside foo after eval.....
clk=1
reset=0
din=0
pattern_detect=0
=============fsm_lock : New Iteration===========
Instance : 1

Inside foo before eval.....
clk=1
reset=0
din=0
pattern_detect=0

Inside foo after eval.....
clk=1
reset=0
din=0
pattern_detect=0
=============fsm_lock : New Iteration===========
Instance : 1

Inside foo before eval.....
clk=1
reset=0
din=0
pattern_detect=0

Inside foo after eval.....
clk=1
reset=0
din=1
pattern_detect=0
=============fsm_lock : New Iteration===========
Instance : 1

Inside foo before eval.....
clk=1
reset=0
din=1
pattern_detect=0

Inside foo after eval.....
clk=1
reset=0
din=1
pattern_detect=0
=============fsm_lock : New Iteration===========
Instance : 1

Inside foo before eval.....
clk=1
reset=0
din=1
pattern_detect=0

Inside foo after eval.....
clk=1
reset=0
din=1
pattern_detect=0
=============fsm_lock : New Iteration===========
Instance : 1

Inside foo before eval.....
clk=1
reset=0
din=1
pattern_detect=0

Inside foo after eval.....
clk=0
reset=0
din=1
pattern_detect=0
=============fsm_lock : New Iteration===========
Instance : 1

Inside foo before eval.....
clk=0
reset=0
din=1
pattern_detect=0

Inside foo after eval.....
clk=1
reset=0
din=1
pattern_detect=1
=============fsm_lock : New Iteration===========
Instance : 1

Inside foo before eval.....
clk=1
reset=0
din=1
pattern_detect=1

Inside foo after eval.....
clk=1
reset=0
din=1
pattern_detect=1
=============fsm_lock : New Iteration===========
Instance : 1

Inside foo before eval.....
clk=1
reset=0
din=1
pattern_detect=1

Inside foo after eval.....
clk=1
reset=0
din=1
pattern_detect=1
=============fsm_lock : New Iteration===========
Instance : 1

Inside foo before eval.....
clk=1
reset=0
din=1
pattern_detect=1

Inside foo after eval.....
clk=1
reset=0
din=0
pattern_detect=1
=============fsm_lock : New Iteration===========
Instance : 1

Inside foo before eval.....
clk=1
reset=0
din=0
pattern_detect=1

Inside foo after eval.....
clk=1
reset=0
din=0
pattern_detect=1
=============fsm_lock : New Iteration===========
Instance : 1

Inside foo before eval.....
clk=1
reset=0
din=0
pattern_detect=1

Inside foo after eval.....
clk=0
reset=0
din=0
pattern_detect=1
=============fsm_lock : New Iteration===========
Instance : 1

Inside foo before eval.....
clk=0
reset=0
din=0
pattern_detect=1

Inside foo after eval.....
clk=1
reset=0
din=0
pattern_detect=0
=============fsm_lock : New Iteration===========
Instance : 1

Inside foo before eval.....
clk=1
reset=0
din=0
pattern_detect=0

Inside foo after eval.....
clk=1
reset=0
din=0
pattern_detect=0
=============fsm_lock : New Iteration===========
Instance : 1

Inside foo before eval.....
clk=1
reset=0
din=0
pattern_detect=0

Inside foo after eval.....
clk=1
reset=0
din=1
pattern_detect=0
=============fsm_lock : New Iteration===========
Instance : 1

Inside foo before eval.....
clk=1
reset=0
din=1
pattern_detect=0

Inside foo after eval.....
clk=1
reset=0
din=1
pattern_detect=0
=============fsm_lock : New Iteration===========
Instance : 1

Inside foo before eval.....
clk=1
reset=0
din=1
pattern_detect=0

Inside foo after eval.....
clk=1
reset=0
din=1
pattern_detect=0
=============fsm_lock : New Iteration===========
Instance : 1

Inside foo before eval.....
clk=1
reset=0
din=1
pattern_detect=0

Inside foo after eval.....
clk=0
reset=0
din=1
pattern_detect=0
=============fsm_lock : New Iteration===========
Instance : 1

Inside foo before eval.....
clk=0
reset=0
din=1
pattern_detect=0

Inside foo after eval.....
clk=1
reset=0
din=1
pattern_detect=0
=============fsm_lock : New Iteration===========
Instance : 1

Inside foo before eval.....
clk=1
reset=0
din=1
pattern_detect=0

Inside foo after eval.....
clk=1
reset=0
din=1
pattern_detect=0
=============fsm_lock : New Iteration===========
Instance : 1

Inside foo before eval.....
clk=1
reset=0
din=1
pattern_detect=0

Inside foo after eval.....
clk=1
reset=0
din=1
pattern_detect=0
=============fsm_lock : New Iteration===========
Instance : 1

Inside foo before eval.....
clk=1
reset=0
din=1
pattern_detect=0

Inside foo after eval.....
clk=0
reset=0
din=1
pattern_detect=0
=============fsm_lock : New Iteration===========
Instance : 1

Inside foo before eval.....
clk=0
reset=0
din=1
pattern_detect=0

Inside foo after eval.....
clk=0
reset=0
din=1
pattern_detect=0
=============fsm_lock : New Iteration===========
Instance : 1

Inside foo before eval.....
clk=0
reset=0
din=1
pattern_detect=0

Inside foo after eval.....
clk=0
reset=0
din=0
pattern_detect=0
=============fsm_lock : New Iteration===========
Instance : 1

Inside foo before eval.....
clk=0
reset=0
din=0
pattern_detect=0

Inside foo after eval.....
clk=1
reset=0
din=0
pattern_detect=0
=============fsm_lock : New Iteration===========
Instance : 1

Inside foo before eval.....
clk=1
reset=0
din=0
pattern_detect=0

Inside foo after eval.....
clk=1
reset=0
din=0
pattern_detect=0
=============fsm_lock : New Iteration===========
Instance : 1

Inside foo before eval.....
clk=1
reset=0
din=0
pattern_detect=0

Inside foo after eval.....
clk=1
reset=0
din=0
pattern_detect=0
=============fsm_lock : New Iteration===========
Instance : 1

Inside foo before eval.....
clk=1
reset=0
din=0
pattern_detect=0

Inside foo after eval.....
clk=0
reset=0
din=0
pattern_detect=0
=============fsm_lock : New Iteration===========
Instance : 1

Inside foo before eval.....
clk=0
reset=0
din=0
pattern_detect=0

Inside foo after eval.....
clk=0
reset=0
din=1
pattern_detect=0
=============fsm_lock : New Iteration===========
Instance : 1

Inside foo before eval.....
clk=0
reset=0
din=1
pattern_detect=0

Inside foo after eval.....
clk=0
reset=0
din=1
pattern_detect=0
=============fsm_lock : New Iteration===========
Instance : 1

Inside foo before eval.....
clk=0
reset=0
din=1
pattern_detect=0

Inside foo after eval.....
clk=1
reset=0
din=1
pattern_detect=1
=============fsm_lock : New Iteration===========
Instance : 1

Inside foo before eval.....
clk=1
reset=0
din=1
pattern_detect=1

Inside foo after eval.....
clk=1
reset=0
din=1
pattern_detect=1
=============fsm_lock : New Iteration===========
Instance : 1

Inside foo before eval.....
clk=1
reset=0
din=1
pattern_detect=1

Inside foo after eval.....
clk=1
reset=0
din=1
pattern_detect=1
=============fsm_lock : New Iteration===========
Instance : 1

Inside foo before eval.....
clk=1
reset=0
din=1
pattern_detect=1

Inside foo after eval.....
clk=0
reset=0
din=1
pattern_detect=1
=============fsm_lock : New Iteration===========
Instance : 1

Inside foo before eval.....
clk=0
reset=0
din=1
pattern_detect=1

Inside foo after eval.....
clk=0
reset=0
din=1
pattern_detect=1
=============fsm_lock : New Iteration===========
Instance : 1

Inside foo before eval.....
clk=0
reset=0
din=1
pattern_detect=1

Inside foo after eval.....
clk=0
reset=0
din=0
pattern_detect=1
=============fsm_lock : New Iteration===========
Instance : 1

Inside foo before eval.....
clk=0
reset=0
din=0
pattern_detect=1

Inside foo after eval.....
clk=1
reset=0
din=0
pattern_detect=0
=============fsm_lock : New Iteration===========
Instance : 1

Inside foo before eval.....
clk=1
reset=0
din=0
pattern_detect=0

Inside foo after eval.....
clk=1
reset=0
din=0
pattern_detect=0
=============fsm_lock : New Iteration===========
Instance : 1

Inside foo before eval.....
clk=1
reset=0
din=0
pattern_detect=0

Inside foo after eval.....
clk=1
reset=0
din=0
pattern_detect=0
=============fsm_lock : New Iteration===========
Instance : 1

Inside foo before eval.....
clk=1
reset=0
din=0
pattern_detect=0

Inside foo after eval.....
clk=0
reset=0
din=0
pattern_detect=0
=============fsm_lock : New Iteration===========
Instance : 1

Inside foo before eval.....
clk=0
reset=0
din=0
pattern_detect=0

Inside foo after eval.....
clk=0
reset=0
din=1
pattern_detect=0
=============fsm_lock : New Iteration===========
Instance : 1

Inside foo before eval.....
clk=0
reset=0
din=1
pattern_detect=0

Inside foo after eval.....
clk=0
reset=0
din=1
pattern_detect=0
=============fsm_lock : New Iteration===========
Instance : 1

Inside foo before eval.....
clk=0
reset=0
din=1
pattern_detect=0

Inside foo after eval.....
clk=1
reset=0
din=1
pattern_detect=0
=============fsm_lock : New Iteration===========
Instance : 1

Inside foo before eval.....
clk=1
reset=0
din=1
pattern_detect=0

Inside foo after eval.....
clk=1
reset=0
din=1
pattern_detect=0
=============fsm_lock : New Iteration===========
Instance : 1

Inside foo before eval.....
clk=1
reset=0
din=1
pattern_detect=0

Inside foo after eval.....
clk=1
reset=0
din=1
pattern_detect=0
=============fsm_lock : New Iteration===========
Instance : 1

Inside foo before eval.....
clk=1
reset=0
din=1
pattern_detect=0

Inside foo after eval.....
clk=0
reset=0
din=1
pattern_detect=0

No. of Data Rows : 1607

Total analysis time (seconds) = 0.028446

Total CPU time (seconds) = 0.057 

Total DRAM available = 7786.777 MB.
DRAM currently available = 1932.184 MB.
Maximum ngspice program size =   23.500 MB.
Current ngspice program size =   11.098 MB.

Shared ngspice pages =    8.848 MB.
Text (code) pages =    4.906 MB.
Stack = 0 bytes.
Library pages =    2.613 MB.

